[TITLE]
Ted Cleveland Example 1
Example from Ted Cleveland's Archive

[JUNCTIONS]
;ID			Elev		Demand		Pattern
 J2			0		295					;

[RESERVOIRS]
;ID			Head		Pattern
 R1			100					;

[TANKS]
;ID			Elevation	InitLevel	MinLevel	MaxLevel	Diameter	MinVol		VolCurve

[PIPES]
;ID			Node1			Node2			Length		Diameter	Roughness	MinorLoss	Status
 1			R1			J2			10000		60		0.15		0.0		OPEN	;

[PUMPS]
;ID			Node1			Node2			Parameters

[VALVES]
;ID			Node1			Node2			Diameter	Type	Setting		MinorLoss

[TAGS]

[DEMANDS]
;Junction	Demand	Pattern	Category

[STATUS]
;ID	Status/Setting

[PATTERNS]
;ID	Multipliers;
;ID              	Multipliers

;ID              	Multipliers----------------	-----------ID              	Multipliers


[CURVES]
;ID	X-Value	Y-Value

[CONTROLS]

[RULES]

[ENERGY]

[EMITTERS]
;Junction	Coefficient

[QUALITY]
;Node			InitQual

[SOURCES]
;Node	Type	Quality	Pattern	

[REACTIONS]
;Type	Pipe/Tank	Coefficient

[REACTIONS]

[MIXING]
;Tank	Model

[TIMES]

[REPORT]

[OPTIONS]
 Units			CFS
 Headloss		D-W
 Specific Gravity	1.0
 Viscosity		1.0
 Trials			40
 Accuracy		0.001
 CHECKFREQ		2
 MAXCHECK		10
 DAMPLIMIT		0.0
 Unbalanced		Unbalanced STOP
 Pattern		1
 Demand Multiplier	1.0
 Emitter Exponent	0.5
 Diffusivity		1.0
 Tolerance		0.0

[COORDINATES]
;Node			X-Coord			Y-Coord
 J2			84.69		63.98
 R1			52.16		86.7

[VERTICES]
;Link			X-Coord			Y-Coord

[LABELS]
;X-Coord	Y-Coord	Label & Anchor Node

[BACKDROP]

[END]
